modelo_opendss/linhas_bt.dss
new line.52873800 phases=3 bus1=80433785270562.1.2.3.0 bus2=80433755270562.1.2.3.0
~ r1=0.975 x1=0.47 length=0.012416 units=km normamps=152.0
new line.52873805 phases=3 bus1=80433755270562.1.2.3.0 bus2=80433855270562.1.2.3.0
~ r1=0.975 x1=0.47 length=0.028677 units=km normamps=152.0
new line.52873808 phases=3 bus1=80433875270562.1.2.3.0 bus2=80433885270562.1.2.3.0
~ r1=0.975 x1=0.47 length=0.016101 units=km normamps=152.0
new line.52873815 phases=3 bus1=80433895284430.1.2.3.0 bus2=80433955284430.1.2.3.0
~ r1=0.991 x1=0.1 length=0.033632 units=km normamps=100.0
new line.52873816 phases=3 bus1=80433975270562.1.2.3.0 bus2=80433965270562.1.2.3.0
~ r1=0.613 x1=0.45 length=0.036684 units=km normamps=203.0
new line.52873823 phases=3 bus1=80434105270562.1.2.3.0 bus2=80434035270562.1.2.3.0
~ r1=0.613 x1=0.45 length=0.031706 units=km normamps=203.0
new line.52873839 phases=3 bus1=80433605270563.1.2.3.0 bus2=80433675270563.1.2.3.0
~ r1=0.975 x1=0.47 length=0.03868 units=km normamps=152.0
new line.52873843 phases=3 bus1=80433695270563.1.2.3.0 bus2=80433705270563.1.2.3.0
~ r1=0.975 x1=0.47 length=0.034359 units=km normamps=152.0
new line.52873844 phases=3 bus1=80433705270563.1.2.3.0 bus2=80433715270563.1.2.3.0
~ r1=0.975 x1=0.47 length=0.025564 units=km normamps=152.0
new line.52873845 phases=3 bus1=80433715270563.1.2.3.0 bus2=80433725270563.1.2.3.0
~ r1=0.975 x1=0.47 length=0.036816 units=km normamps=152.0
new line.52873849 phases=3 bus1=80433805270563.1.2.3.0 bus2=93432685270563.1.2.3.0
~ r1=0.975 x1=0.47 length=0.015128 units=km normamps=152.0
new line.52873852 phases=3 bus1=80434065270563.1.2.3.0 bus2=80434095270563.1.2.3.0
~ r1=0.613 x1=0.45 length=0.049332 units=km normamps=203.0
new line.52873854 phases=3 bus1=80434115270563.1.2.3.0 bus2=80433745270563.1.2.3.0
~ r1=0.613 x1=0.45 length=0.029777 units=km normamps=203.0
new line.52873858 phases=3 bus1=80434135270564.1.2.3.0 bus2=80434125270564.1.2.3.0
~ r1=0.975 x1=0.47 length=0.02966 units=km normamps=152.0
new line.52873859 phases=3 bus1=80434175270564.1.2.3.0 bus2=80434135270564.1.2.3.0
~ r1=0.975 x1=0.47 length=0.029725 units=km normamps=152.0
new line.52873862 phases=3 bus1=80434205270564.1.2.3.0 bus2=80434195270564.1.2.3.0
~ r1=0.613 x1=0.45 length=0.037834 units=km normamps=203.0
new line.52873866 phases=3 bus1=80435675270564.1.2.3.0 bus2=80435665270564.1.2.3.0
~ r1=0.975 x1=0.47 length=0.011061 units=km normamps=152.0
new line.52873873 phases=3 bus1=80437085270565.1.2.3.0 bus2=80437045270565.1.2.3.0
~ r1=0.975 x1=0.47 length=0.0311 units=km normamps=152.0
new line.52873875 phases=3 bus1=80437105270565.1.2.3.0 bus2=80437095270565.1.2.3.0
~ r1=0.975 x1=0.47 length=0.032481 units=km normamps=152.0
new line.52873876 phases=3 bus1=80434855270565.1.2.3.0 bus2=80437105270565.1.2.3.0
~ r1=0.975 x1=0.47 length=0.044813 units=km normamps=152.0
new line.52873880 phases=3 bus1=80434735270565.1.2.3.0 bus2=80434765270565.1.2.3.0
~ r1=0.613 x1=0.45 length=0.018855 units=km normamps=203.0
new line.52873881 phases=3 bus1=80434765270565.1.2.3.0 bus2=80434775270565.1.2.3.0
~ r1=0.613 x1=0.45 length=0.032998 units=km normamps=203.0
new line.52873882 phases=3 bus1=80434775270565.1.2.3.0 bus2=80434305270565.1.2.3.0
~ r1=0.613 x1=0.45 length=0.02607 units=km normamps=203.0
new line.52873883 phases=3 bus1=80434735270565.1.2.3.0 bus2=80434785270565.1.2.3.0
~ r1=0.975 x1=0.47 length=0.00622 units=km normamps=152.0
new line.52873884 phases=3 bus1=80434785270565.1.2.3.0 bus2=80434795270565.1.2.3.0
~ r1=0.975 x1=0.47 length=0.030092 units=km normamps=152.0
new line.52873896 phases=3 bus1=80434235270565.1.2.3.0 bus2=80434255270565.1.2.3.0
~ r1=0.975 x1=0.47 length=0.009427 units=km normamps=152.0
new line.52873897 phases=3 bus1=80434245270565.1.2.3.0 bus2=80434255270565.1.2.3.0
~ r1=0.613 x1=0.45 length=0.034996 units=km normamps=203.0
new line.52873899 phases=3 bus1=80434265270565.1.2.3.0 bus2=80434245270565.1.2.3.0
~ r1=0.613 x1=0.45 length=0.032287 units=km normamps=203.0
new line.52873902 phases=3 bus1=80434155270565.1.2.3.0 bus2=80434265270565.1.2.3.0
~ r1=0.613 x1=0.45 length=0.048103 units=km normamps=203.0
new line.52873905 phases=3 bus1=80437025270565.1.2.3.0 bus2=80435825270565.1.2.3.0
~ r1=0.506 x1=0.1 length=0.014584 units=km normamps=157.0
new line.52873906 phases=3 bus1=80437035270565.1.2.3.0 bus2=80437025270565.1.2.3.0
~ r1=0.613 x1=0.45 length=0.055454 units=km normamps=203.0
new line.52873907 phases=3 bus1=80437035270565.1.2.3.0 bus2=80437045270565.1.2.3.0
~ r1=0.975 x1=0.47 length=0.017383 units=km normamps=152.0
new line.52873908 phases=3 bus1=80437045270565.1.2.3.0 bus2=80437055270565.1.2.3.0
~ r1=0.975 x1=0.47 length=0.014791 units=km normamps=152.0
new line.52873910 phases=3 bus1=80434055270566.1.2.3.0 bus2=80434315270566.1.2.3.0
~ r1=1.564 x1=0.51 length=0.042693 units=km normamps=120.0
new line.52873911 phases=3 bus1=80434325270566.1.2.3.0 bus2=80434075270566.1.2.3.0
~ r1=1.564 x1=0.51 length=0.028272 units=km normamps=120.0
new line.52873913 phases=3 bus1=80434315270566.1.2.3.0 bus2=80434365270566.1.2.3.0
~ r1=1.564 x1=0.51 length=0.040003 units=km normamps=120.0
new line.52873914 phases=3 bus1=80434365270566.1.2.3.0 bus2=80434375270566.1.2.3.0
~ r1=1.564 x1=0.51 length=0.024052 units=km normamps=120.0
new line.52873919 phases=3 bus1=80434425270566.1.2.3.0 bus2=80434415270566.1.2.3.0
~ r1=1.564 x1=0.51 length=0.016487 units=km normamps=120.0
new line.52873922 phases=3 bus1=80434445270566.1.2.3.0 bus2=80434455270566.1.2.3.0
~ r1=1.564 x1=0.51 length=0.015098 units=km normamps=120.0
new line.52873925 phases=3 bus1=80434475270566.1.2.3.0 bus2=80434335270566.1.2.3.0
~ r1=1.564 x1=0.51 length=0.043683 units=km normamps=120.0
new line.52873928 phases=3 bus1=80434505270566.1.2.3.0 bus2=80434495270566.1.2.3.0
~ r1=0.613 x1=0.45 length=0.01509 units=km normamps=203.0
new line.52873937 phases=3 bus1=80434715270566.1.2.3.0 bus2=80434725270566.1.2.3.0
~ r1=0.975 x1=0.47 length=0.032897 units=km normamps=152.0
new line.52873938 phases=3 bus1=80434875270566.1.2.3.0 bus2=80434865270566.1.2.3.0
~ r1=0.975 x1=0.47 length=0.032738 units=km normamps=152.0
new line.52873944 phases=3 bus1=80434925270566.1.2.3.0 bus2=80434935270566.1.2.3.0
~ r1=0.613 x1=0.45 length=0.02651 units=km normamps=203.0
new line.52873952 phases=3 bus1=80434985270567.1.2.3.0 bus2=80434965270567.1.2.3.0
~ r1=0.613 x1=0.45 length=0.031962 units=km normamps=203.0
new line.52873956 phases=3 bus1=80435095270567.1.2.3.0 bus2=80435105270567.1.2.3.0
~ r1=0.975 x1=0.47 length=0.033182 units=km normamps=152.0
new line.52873957 phases=3 bus1=80435105270567.1.2.3.0 bus2=80434985270567.1.2.3.0
~ r1=0.975 x1=0.47 length=0.030213 units=km normamps=152.0
new line.52873958 phases=3 bus1=80435115270567.1.2.3.0 bus2=80434985270567.1.2.3.0
~ r1=0.613 x1=0.45 length=0.021489 units=km normamps=203.0
new line.52873960 phases=3 bus1=80435135270567.1.2.3.0 bus2=80435125270567.1.2.3.0
~ r1=0.613 x1=0.45 length=0.026996 units=km normamps=203.0
new line.52873963 phases=3 bus1=80435165270567.1.2.3.0 bus2=80435155270567.1.2.3.0
~ r1=0.975 x1=0.47 length=0.002895 units=km normamps=152.0
new line.52873964 phases=3 bus1=80435155270567.1.2.3.0 bus2=80435175270567.1.2.3.0
~ r1=0.975 x1=0.47 length=0.012306 units=km normamps=152.0
new line.52873968 phases=3 bus1=80435765270567.1.2.3.0 bus2=80435755270567.1.2.3.0
~ r1=0.975 x1=0.47 length=0.036022 units=km normamps=152.0
new line.52873975 phases=3 bus1=80435825270567.1.2.3.0 bus2=80435815270567.1.2.3.0
~ r1=0.991 x1=0.1 length=0.029654 units=km normamps=100.0
new line.52873981 phases=3 bus1=80435345270568.1.2.3.0 bus2=80435335270568.1.2.3.0
~ r1=0.991 x1=0.1 length=0.030346 units=km normamps=100.0
new line.52873983 phases=3 bus1=80435365270568.1.2.3.0 bus2=80435325270568.1.2.3.0
~ r1=0.991 x1=0.1 length=0.029711 units=km normamps=100.0
new line.52873990 phases=3 bus1=80435475270568.1.2.3.0 bus2=80435465270568.1.2.3.0
~ r1=0.975 x1=0.47 length=0.00859 units=km normamps=152.0
new line.52873991 phases=3 bus1=80435245270568.1.2.3.0 bus2=80435465270568.1.2.3.0
~ r1=0.506 x1=0.1 length=0.03303 units=km normamps=157.0
new line.52874000 phases=3 bus1=80435715270569.1.2.3.0 bus2=80435705270569.1.2.3.0
~ r1=0.975 x1=0.47 length=0.026763 units=km normamps=152.0
new line.52874004 phases=3 bus1=80437125270570.1.2.3.0 bus2=80437115270570.1.2.3.0
~ r1=0.975 x1=0.47 length=0.041148 units=km normamps=152.0
new line.52874008 phases=3 bus1=80435865270570.1.2.3.0 bus2=80435855270570.1.2.3.0
~ r1=0.613 x1=0.45 length=0.040117 units=km normamps=203.0
new line.52874012 phases=3 bus1=80434585270570.1.2.3.0 bus2=80434565270570.1.2.3.0
~ r1=0.975 x1=0.47 length=0.038938 units=km normamps=152.0
new line.52874014 phases=3 bus1=80434605270570.1.2.3.0 bus2=80434595270570.1.2.3.0
~ r1=0.975 x1=0.47 length=0.038438 units=km normamps=152.0
new line.52874015 phases=3 bus1=80434565270570.1.2.3.0 bus2=80434575270570.1.2.3.0
~ r1=0.975 x1=0.47 length=0.013643 units=km normamps=152.0
new line.52874017 phases=3 bus1=80434635270570.1.2.3.0 bus2=80434625270570.1.2.3.0
~ r1=0.975 x1=0.47 length=0.028516 units=km normamps=152.0
new line.52874018 phases=3 bus1=80434565270570.1.2.3.0 bus2=80434635270570.1.2.3.0
~ r1=0.975 x1=0.47 length=0.046007 units=km normamps=152.0
new line.52874019 phases=3 bus1=80434575270570.1.2.3.0 bus2=80434645270570.1.2.3.0
~ r1=0.975 x1=0.47 length=0.037052 units=km normamps=152.0
new line.52874025 phases=3 bus1=80434995270570.1.2.3.0 bus2=80435005270570.1.2.3.0
~ r1=0.975 x1=0.47 length=0.026227 units=km normamps=152.0
new line.52874027 phases=3 bus1=80435015270570.1.2.3.0 bus2=80435025270570.1.2.3.0
~ r1=0.975 x1=0.47 length=0.034767 units=km normamps=152.0
new line.52874031 phases=3 bus1=80435045270570.1.2.3.0 bus2=80434605270570.1.2.3.0
~ r1=0.975 x1=0.47 length=0.035211 units=km normamps=152.0
new line.52874032 phases=3 bus1=80435055270570.1.2.3.0 bus2=80435065270570.1.2.3.0
~ r1=0.613 x1=0.45 length=0.021498 units=km normamps=203.0
new line.52874034 phases=3 bus1=80438245270571.1.2.3.0 bus2=80439745270571.1.2.3.0
~ r1=0.975 x1=0.47 length=0.021571 units=km normamps=152.0
new line.52874035 phases=3 bus1=80438225270571.1.2.3.0 bus2=80439745270571.1.2.3.0
~ r1=0.975 x1=0.47 length=0.007451 units=km normamps=152.0
new line.52874039 phases=3 bus1=80438165270571.1.2.3.0 bus2=80438155270571.1.2.3.0
~ r1=0.975 x1=0.47 length=0.025728 units=km normamps=152.0
new line.52874041 phases=1 bus1=80438095270585.1.0 bus2=80438105270585.1.0
~ r1=0.975 x1=0.47 length=0.028064 units=km normamps=152.0
new line.52874047 phases=3 bus1=80438255270571.1.2.3.0 bus2=80438245270571.1.2.3.0
~ r1=0.975 x1=0.47 length=0.029803 units=km normamps=152.0
new line.52874053 phases=3 bus1=80438315270571.1.2.3.0 bus2=80438325270571.1.2.3.0
~ r1=0.613 x1=0.45 length=0.036863 units=km normamps=203.0
new line.52874054 phases=3 bus1=80438335270571.1.2.3.0 bus2=80438325270571.1.2.3.0
~ r1=0.975 x1=0.47 length=0.020806 units=km normamps=152.0
new line.52874059 phases=1 bus1=80437485270580.1.0 bus2=80437645270580.1.0
~ r1=1.551 x1=0.49 length=0.035199 units=km normamps=114.0
new line.52874064 phases=3 bus1=80437565270581.1.2.3.0 bus2=80437185270581.1.2.3.0
~ r1=0.975 x1=0.47 length=0.020751 units=km normamps=152.0
new line.52874065 phases=3 bus1=80437185270581.1.2.3.0 bus2=80437575270581.1.2.3.0
~ r1=0.975 x1=0.47 length=0.027289 units=km normamps=152.0
new line.52874068 phases=3 bus1=80437595270581.1.2.3.0 bus2=80437605270581.1.2.3.0
~ r1=0.975 x1=0.47 length=0.029621 units=km normamps=152.0
new line.52874069 phases=3 bus1=80437595270581.1.2.3.0 bus2=80437615270581.1.2.3.0
~ r1=0.613 x1=0.45 length=0.031669 units=km normamps=203.0
new line.52874076 phases=3 bus1=80437665270582.1.2.3.0 bus2=80437675270582.1.2.3.0
~ r1=0.613 x1=0.45 length=0.027292 units=km normamps=203.0
new line.52874080 phases=3 bus1=80439025270582.1.2.3.0 bus2=80439015270582.1.2.3.0
~ r1=0.975 x1=0.47 length=0.013146 units=km normamps=152.0
new line.52874081 phases=3 bus1=80437695270582.1.2.3.0 bus2=80439025270582.1.2.3.0
~ r1=0.613 x1=0.45 length=0.04146 units=km normamps=203.0
new line.52874085 phases=3 bus1=80438425270572.1.2.3.0 bus2=80439605270572.1.2.3.0
~ r1=0.613 x1=0.45 length=0.021278 units=km normamps=203.0
new line.52874089 phases=3 bus1=80439635270572.1.2.3.0 bus2=80439645270572.1.2.3.0
~ r1=0.975 x1=0.47 length=0.020856 units=km normamps=152.0
new line.52874092 phases=1 bus1=80439665270572.1.0 bus2=80439675270572.1.0
~ r1=0.975 x1=0.47 length=0.031495 units=km normamps=152.0
new line.52874094 phases=3 bus1=80439695270572.1.2.3.0 bus2=80439615270572.1.2.3.0
~ r1=0.975 x1=0.47 length=0.032923 units=km normamps=152.0
new line.52874099 phases=3 bus1=80436325270573.1.2.3.0 bus2=80436305270573.1.2.3.0
~ r1=0.613 x1=0.45 length=0.025011 units=km normamps=203.0
new line.52874101 phases=3 bus1=80436345270573.1.2.3.0 bus2=80436335270573.1.2.3.0
~ r1=0.613 x1=0.45 length=0.024296 units=km normamps=203.0
new line.52874106 phases=3 bus1=80436405270574.1.2.3.0 bus2=80436375270574.1.2.3.0
~ r1=0.975 x1=0.47 length=0.030238 units=km normamps=152.0
new line.52874108 phases=3 bus1=80436425270574.1.2.3.0 bus2=80436415270574.1.2.3.0
~ r1=0.975 x1=0.47 length=0.031501 units=km normamps=152.0
new line.52874114 phases=3 bus1=80436485270574.1.2.3.0 bus2=80436475270574.1.2.3.0
~ r1=0.975 x1=0.47 length=0.012356 units=km normamps=152.0
new line.52874116 phases=3 bus1=80437865270574.1.2.3.0 bus2=80437855270574.1.2.3.0
~ r1=0.975 x1=0.47 length=0.032897 units=km normamps=152.0
new line.52874121 phases=3 bus1=80437755270574.1.2.3.0 bus2=80437765270574.1.2.3.0
~ r1=0.975 x1=0.47 length=0.045133 units=km normamps=152.0
new line.52874123 phases=3 bus1=80438435270574.1.2.3.0 bus2=80437775270574.1.2.3.0
~ r1=0.975 x1=0.47 length=0.035304 units=km normamps=152.0
new line.52874124 phases=3 bus1=80438545270574.1.2.3.0 bus2=80438555270574.1.2.3.0
~ r1=0.975 x1=0.47 length=0.018103 units=km normamps=152.0
new line.52874125 phases=3 bus1=80438555270574.1.2.3.0 bus2=80438575270574.1.2.3.0
~ r1=0.975 x1=0.47 length=0.032403 units=km normamps=152.0
new line.52874126 phases=3 bus1=80438575270574.1.2.3.0 bus2=80438585270574.1.2.3.0
~ r1=0.975 x1=0.47 length=0.04263 units=km normamps=152.0
new line.52874132 phases=3 bus1=80436505270575.1.2.3.0 bus2=80436495270575.1.2.3.0
~ r1=0.975 x1=0.47 length=0.042076 units=km normamps=152.0
new line.52874133 phases=3 bus1=80436515270575.1.2.3.0 bus2=80436505270575.1.2.3.0
~ r1=0.613 x1=0.45 length=0.031501 units=km normamps=203.0
new line.52874136 phases=3 bus1=80436545270575.1.2.3.0 bus2=80436535270575.1.2.3.0
~ r1=0.613 x1=0.45 length=0.038506 units=km normamps=203.0
new line.52874137 phases=3 bus1=80436555270575.1.2.3.0 bus2=80436545270575.1.2.3.0
~ r1=0.613 x1=0.45 length=0.034818 units=km normamps=203.0
new line.52874138 phases=3 bus1=80436565270575.1.2.3.0 bus2=80436555270575.1.2.3.0
~ r1=0.613 x1=0.45 length=0.026163 units=km normamps=203.0
new line.52874140 phases=3 bus1=80436585270576.1.2.3.0 bus2=80436575270576.1.2.3.0
~ r1=0.613 x1=0.45 length=0.028837 units=km normamps=203.0
new line.52874143 phases=3 bus1=80437805270576.1.2.3.0 bus2=80436595270576.1.2.3.0
~ r1=0.975 x1=0.47 length=0.010257 units=km normamps=152.0
new line.52874144 phases=1 bus1=80434355270577.1.0 bus2=80434345270577.1.0
~ r1=0.975 x1=0.47 length=0.026745 units=km normamps=152.0
new line.52874146 phases=3 bus1=80436665270577.1.2.3.0 bus2=80436655270577.1.2.3.0
~ r1=0.613 x1=0.45 length=0.02065 units=km normamps=203.0
new line.52874147 phases=3 bus1=80436675270577.1.2.3.0 bus2=80436665270577.1.2.3.0
~ r1=0.613 x1=0.45 length=0.024626 units=km normamps=203.0
new line.52874156 phases=3 bus1=80436735270577.1.2.3.0 bus2=80436725270577.1.2.3.0
~ r1=0.975 x1=0.47 length=0.009701 units=km normamps=152.0
new line.52874159 phases=3 bus1=80436755270577.1.2.3.0 bus2=80436745270577.1.2.3.0
~ r1=0.975 x1=0.47 length=0.036239 units=km normamps=152.0
new line.52874163 phases=3 bus1=80436795270577.1.2.3.0 bus2=80436785270577.1.2.3.0
~ r1=0.975 x1=0.47 length=0.039989 units=km normamps=152.0
new line.52874172 phases=3 bus1=80436045270579.1.2.3.0 bus2=80436035270579.1.2.3.0
~ r1=0.613 x1=0.45 length=0.010428 units=km normamps=203.0
new line.52874176 phases=3 bus1=80436065270579.1.2.3.0 bus2=80436035270579.1.2.3.0
~ r1=0.975 x1=0.47 length=0.012934 units=km normamps=152.0
new line.52874179 phases=3 bus1=80437195270579.1.2.3.0 bus2=80437205270579.1.2.3.0
~ r1=0.975 x1=0.47 length=0.027438 units=km normamps=152.0
new line.52874181 phases=3 bus1=80437225270579.1.2.3.0 bus2=80437215270579.1.2.3.0
~ r1=0.613 x1=0.45 length=0.010676 units=km normamps=203.0
new line.52874186 phases=3 bus1=80437225270579.1.2.3.0 bus2=80437255270579.1.2.3.0
~ r1=0.975 x1=0.47 length=0.012934 units=km normamps=152.0
new line.52874192 phases=3 bus1=80437305270580.1.2.3.0 bus2=80437295270580.1.2.3.0
~ r1=0.613 x1=0.45 length=0.034632 units=km normamps=203.0
new line.52874194 phases=3 bus1=80437325270580.1.2.3.0 bus2=80437315270580.1.2.3.0
~ r1=0.613 x1=0.45 length=0.033292 units=km normamps=203.0
new line.52874196 phases=3 bus1=80437355270580.1.2.3.0 bus2=80437335270580.1.2.3.0
~ r1=0.975 x1=0.47 length=0.033436 units=km normamps=152.0
new line.52874202 phases=3 bus1=80437445270580.1.2.3.0 bus2=80437345270580.1.2.3.0
~ r1=0.975 x1=0.47 length=0.013797 units=km normamps=152.0
new line.52874204 phases=3 bus1=80437455270580.1.2.3.0 bus2=80437465270580.1.2.3.0
~ r1=0.975 x1=0.47 length=0.035864 units=km normamps=152.0
new line.52874207 phases=3 bus1=80437485270580.1.2.3.0 bus2=80437495270580.1.2.3.0
~ r1=0.975 x1=0.47 length=0.02228 units=km normamps=152.0
new line.52874211 phases=3 bus1=80437525270580.1.2.3.0 bus2=80437535270580.1.2.3.0
~ r1=0.975 x1=0.47 length=0.014641 units=km normamps=152.0
new line.52874213 phases=3 bus1=80437345270580.1.2.3.0 bus2=80437535270580.1.2.3.0
~ r1=0.975 x1=0.47 length=0.014641 units=km normamps=152.0
new line.52874215 phases=3 bus1=80437545270580.1.2.3.0 bus2=80437555270580.1.2.3.0
~ r1=0.975 x1=0.47 length=0.026214 units=km normamps=152.0
new line.52874218 phases=3 bus1=80439505270583.1.2.3.0 bus2=80439495270583.1.2.3.0
~ r1=0.975 x1=0.47 length=0.019903 units=km normamps=152.0
new line.52874219 phases=3 bus1=80439495270583.1.2.3.0 bus2=80439515270583.1.2.3.0
~ r1=0.613 x1=0.45 length=0.020268 units=km normamps=203.0
new line.52874222 phases=3 bus1=80439545270583.1.2.3.0 bus2=80439485270583.1.2.3.0
~ r1=0.613 x1=0.45 length=0.031805 units=km normamps=203.0
new line.52874223 phases=3 bus1=80439555270583.1.2.3.0 bus2=80439545270583.1.2.3.0
~ r1=0.613 x1=0.45 length=0.030508 units=km normamps=203.0
new line.52874231 phases=3 bus1=80439245270584.1.2.3.0 bus2=80439205270584.1.2.3.0
~ r1=0.613 x1=0.45 length=0.040541 units=km normamps=203.0
new line.52874234 phases=3 bus1=80439275270584.1.2.3.0 bus2=80439265270584.1.2.3.0
~ r1=0.613 x1=0.45 length=0.03324 units=km normamps=203.0
new line.52874235 phases=3 bus1=80438795270584.1.2.3.0 bus2=80439275270584.1.2.3.0
~ r1=0.613 x1=0.45 length=0.032875 units=km normamps=203.0
new line.52874237 phases=3 bus1=80438815270584.1.2.3.0 bus2=80438805270584.1.2.3.0
~ r1=0.975 x1=0.47 length=0.028639 units=km normamps=152.0
new line.52874238 phases=3 bus1=80438825270584.1.2.3.0 bus2=80438815270584.1.2.3.0
~ r1=0.975 x1=0.47 length=0.029112 units=km normamps=152.0
new line.52874242 phases=3 bus1=80439595270583.1.2.3.0 bus2=80438275270583.1.2.3.0
~ r1=0.975 x1=0.47 length=0.031501 units=km normamps=152.0
new line.52874243 phases=3 bus1=80439535270583.1.2.3.0 bus2=80438285270583.1.2.3.0
~ r1=0.975 x1=0.47 length=0.041969 units=km normamps=152.0
new line.52874246 phases=3 bus1=80438395270583.1.2.3.0 bus2=80438405270583.1.2.3.0
~ r1=0.975 x1=0.47 length=0.041966 units=km normamps=152.0
new line.52874247 phases=3 bus1=80438405270583.1.2.3.0 bus2=80438415270583.1.2.3.0
~ r1=0.975 x1=0.47 length=0.044627 units=km normamps=152.0
new line.52874248 phases=3 bus1=80439175270584.1.2.3.0 bus2=80439165270584.1.2.3.0
~ r1=0.975 x1=0.47 length=0.025068 units=km normamps=152.0
new line.52874250 phases=3 bus1=80439195270584.1.2.3.0 bus2=80439185270584.1.2.3.0
~ r1=0.975 x1=0.47 length=0.041614 units=km normamps=152.0
new line.52874251 phases=3 bus1=80439205270584.1.2.3.0 bus2=80439195270584.1.2.3.0
~ r1=0.975 x1=0.47 length=0.033211 units=km normamps=152.0
new line.52874254 phases=3 bus1=80438865270584.1.2.3.0 bus2=80438855270584.1.2.3.0
~ r1=0.975 x1=0.47 length=0.038582 units=km normamps=152.0
new line.52874258 phases=3 bus1=80439075270584.1.2.3.0 bus2=80439065270584.1.2.3.0
~ r1=0.975 x1=0.47 length=0.027275 units=km normamps=152.0
new line.52874259 phases=3 bus1=80439295270585.1.2.3.0 bus2=80439285270585.1.2.3.0
~ r1=0.975 x1=0.47 length=0.036544 units=km normamps=152.0
new line.52874260 phases=3 bus1=80435955270585.1.2.3.0 bus2=80439295270585.1.2.3.0
~ r1=0.975 x1=0.47 length=0.020021 units=km normamps=152.0
new line.52874264 phases=3 bus1=80439335270585.1.2.3.0 bus2=80439325270585.1.2.3.0
~ r1=0.613 x1=0.45 length=0.030909 units=km normamps=203.0
new line.52874275 phases=3 bus1=80439465270585.1.2.3.0 bus2=80439455270585.1.2.3.0
~ r1=0.975 x1=0.47 length=0.027128 units=km normamps=152.0
new line.52874280 phases=3 bus1=80439455270585.1.2.3.0 bus2=80438145270585.1.2.3.0
~ r1=0.975 x1=0.47 length=0.037179 units=km normamps=152.0
new line.52874282 phases=3 bus1=80439685270585.1.2.3.0 bus2=80439365270585.1.2.3.0
~ r1=0.975 x1=0.47 length=0.030692 units=km normamps=152.0
new line.52874287 phases=3 bus1=80440215591555.1.2.3.0 bus2=80440205591555.1.2.3.0
~ r1=0.991 x1=0.1 length=0.040918 units=km normamps=100.0
new line.52874296 phases=3 bus1=80440305270585.1.2.3.0 bus2=80435985270585.1.2.3.0
~ r1=0.975 x1=0.47 length=0.054157 units=km normamps=152.0
new line.52874305 phases=3 bus1=80439415270586.1.2.3.0 bus2=80437945270586.1.2.3.0
~ r1=1.551 x1=0.49 length=0.026383 units=km normamps=114.0
new line.52874316 phases=3 bus1=80438235270586.1.2.3.0 bus2=80438005270586.1.2.3.0
~ r1=0.975 x1=0.47 length=0.027846 units=km normamps=152.0
new line.52874317 phases=3 bus1=80437875270588.1.2.3.0 bus2=80436235270588.1.2.3.0
~ r1=0.975 x1=0.47 length=0.016469 units=km normamps=152.0
new line.52874321 phases=3 bus1=80436015291649.1.2.3.0 bus2=80435995291649.1.2.3.0
~ r1=0.975 x1=0.47 length=0.022969 units=km normamps=152.0
new line.52874324 phases=3 bus1=80436125291649.1.2.3.0 bus2=80436115291649.1.2.3.0
~ r1=0.975 x1=0.47 length=0.030272 units=km normamps=152.0
new line.52874331 phases=3 bus1=80436275270589.1.2.3.0 bus2=80436265270589.1.2.3.0
~ r1=0.506 x1=0.1 length=0.030279 units=km normamps=157.0
new line.52874332 phases=3 bus1=80436285270589.1.2.3.0 bus2=80436275270589.1.2.3.0
~ r1=0.506 x1=0.1 length=0.036709 units=km normamps=157.0
new line.52874336 phases=3 bus1=80439095270590.1.2.3.0 bus2=80439105270590.1.2.3.0
~ r1=0.975 x1=0.47 length=0.033173 units=km normamps=152.0
new line.52874337 phases=3 bus1=80439105270590.1.2.3.0 bus2=80439115270590.1.2.3.0
~ r1=0.975 x1=0.47 length=0.02245 units=km normamps=152.0
new line.52874339 phases=3 bus1=80439125270590.1.2.3.0 bus2=80439135270590.1.2.3.0
~ r1=0.975 x1=0.47 length=0.01244 units=km normamps=152.0
new line.52874341 phases=3 bus1=80439145270590.1.2.3.0 bus2=80436935270590.1.2.3.0
~ r1=0.975 x1=0.47 length=0.047869 units=km normamps=152.0
new line.52874343 phases=3 bus1=80436635594047.1.2.3.0 bus2=80436625594047.1.2.3.0
~ r1=0.613 x1=0.45 length=0.026248 units=km normamps=203.0
new line.52874344 phases=3 bus1=80436645594047.1.2.3.0 bus2=80436635594047.1.2.3.0
~ r1=0.975 x1=0.47 length=0.009351 units=km normamps=152.0
new line.52874345 phases=3 bus1=80436655594047.1.2.3.0 bus2=80436635594047.1.2.3.0
~ r1=0.613 x1=0.45 length=0.025222 units=km normamps=203.0
new line.52874346 phases=3 bus1=80436805270590.1.2.3.0 bus2=80436795270590.1.2.3.0
~ r1=0.613 x1=0.45 length=0.015452 units=km normamps=203.0
new line.52874347 phases=3 bus1=80436815270590.1.2.3.0 bus2=80436805270590.1.2.3.0
~ r1=0.613 x1=0.45 length=0.009908 units=km normamps=203.0
new line.52874357 phases=3 bus1=80436905594047.1.2.3.0 bus2=80436895594047.1.2.3.0
~ r1=0.975 x1=0.47 length=0.029074 units=km normamps=152.0
new line.52874360 phases=3 bus1=80436925270590.1.2.3.0 bus2=80436805270590.1.2.3.0
~ r1=0.975 x1=0.47 length=0.020856 units=km normamps=152.0
new line.52874361 phases=3 bus1=80436935270590.1.2.3.0 bus2=80436925270590.1.2.3.0
~ r1=0.975 x1=0.47 length=0.03217 units=km normamps=152.0
new line.52874369 phases=3 bus1=80436215270593.1.2.3.0 bus2=80436205270593.1.2.3.0
~ r1=0.975 x1=0.47 length=0.025562 units=km normamps=152.0
new line.52874374 phases=3 bus1=80437905270593.1.2.3.0 bus2=80437135270593.1.2.3.0
~ r1=0.975 x1=0.47 length=0.024274 units=km normamps=152.0
new line.52874375 phases=3 bus1=80437135270593.1.2.3.0 bus2=80437145270593.1.2.3.0
~ r1=0.975 x1=0.47 length=0.0401 units=km normamps=152.0
new line.52874377 phases=3 bus1=80437905270593.1.2.3.0 bus2=80437195270593.1.2.3.0
~ r1=0.975 x1=0.47 length=0.023212 units=km normamps=152.0
new line.52874379 phases=3 bus1=80438485270595.1.2.3.0 bus2=80438475270595.1.2.3.0
~ r1=0.975 x1=0.47 length=0.028423 units=km normamps=152.0
new line.52874382 phases=3 bus1=80437725270596.1.2.3.0 bus2=80437735270596.1.2.3.0
~ r1=0.975 x1=0.47 length=0.038206 units=km normamps=152.0
new line.52874393 phases=3 bus1=80438635270597.1.2.3.0 bus2=80438625270597.1.2.3.0
~ r1=0.975 x1=0.47 length=0.033801 units=km normamps=152.0
new line.52874402 phases=3 bus1=80438905270597.1.2.3.0 bus2=80438895270597.1.2.3.0
~ r1=0.613 x1=0.45 length=0.036438 units=km normamps=203.0
new line.52874403 phases=3 bus1=80438915270597.1.2.3.0 bus2=80438905270597.1.2.3.0
~ r1=0.613 x1=0.45 length=0.029628 units=km normamps=203.0
new line.52874404 phases=3 bus1=80438935270597.1.2.3.0 bus2=80438915270597.1.2.3.0
~ r1=0.613 x1=0.45 length=0.034644 units=km normamps=203.0
new line.52874405 phases=3 bus1=80438945270597.1.2.3.0 bus2=80438935270597.1.2.3.0
~ r1=0.975 x1=0.47 length=0.011306 units=km normamps=152.0
new line.52874406 phases=3 bus1=80438955270597.1.2.3.0 bus2=80438945270597.1.2.3.0
~ r1=0.975 x1=0.47 length=0.032424 units=km normamps=152.0
new line.52874416 phases=3 bus1=80433515270599.1.2.3.0 bus2=80433505270599.1.2.3.0
~ r1=0.975 x1=0.47 length=0.033934 units=km normamps=152.0
new line.52874418 phases=3 bus1=80433545270599.1.2.3.0 bus2=80433525270599.1.2.3.0
~ r1=0.975 x1=0.47 length=0.034101 units=km normamps=152.0
new line.52874421 phases=3 bus1=80433565270599.1.2.3.0 bus2=80433555270599.1.2.3.0
~ r1=0.975 x1=0.47 length=0.027816 units=km normamps=152.0
new line.52874427 phases=3 bus1=80435435270599.1.2.3.0 bus2=80435425270599.1.2.3.0
~ r1=0.991 x1=0.1 length=0.053788 units=km normamps=100.0
new line.52874431 phases=3 bus1=80440135270599.1.2.3.0 bus2=80435915270599.1.2.3.0
~ r1=0.506 x1=0.1 length=0.03539 units=km normamps=157.0
new line.52874432 phases=3 bus1=80440125270599.1.2.3.0 bus2=80440055270599.1.2.3.0
~ r1=0.991 x1=0.1 length=0.008737 units=km normamps=100.0
new line.52874434 phases=3 bus1=80440145270599.1.2.3.0 bus2=80440085270599.1.2.3.0
~ r1=0.991 x1=0.1 length=0.013681 units=km normamps=100.0
new line.52874435 phases=3 bus1=80440155270599.1.2.3.0 bus2=80440145270599.1.2.3.0
~ r1=0.975 x1=0.47 length=0.026435 units=km normamps=152.0
new line.52874436 phases=3 bus1=80440145270599.1.2.3.0 bus2=80440075270599.1.2.3.0
~ r1=0.991 x1=0.1 length=0.030677 units=km normamps=100.0
new line.52874441 phases=3 bus1=80439985270599.1.2.3.0 bus2=80440005270599.1.2.3.0
~ r1=0.991 x1=0.1 length=0.021877 units=km normamps=100.0
new line.52874443 phases=3 bus1=80440025270599.1.2.3.0 bus2=80440015270599.1.2.3.0
~ r1=0.975 x1=0.47 length=0.032998 units=km normamps=152.0
new line.52874445 phases=3 bus1=80440045270599.1.2.3.0 bus2=80440005270599.1.2.3.0
~ r1=0.991 x1=0.1 length=0.04242 units=km normamps=100.0
new line.52874447 phases=3 bus1=80435205270600.1.2.3.0 bus2=80435215270600.1.2.3.0
~ r1=0.506 x1=0.1 length=0.031847 units=km normamps=157.0
new line.52874448 phases=3 bus1=80435225270600.1.2.3.0 bus2=80435205270600.1.2.3.0
~ r1=0.506 x1=0.1 length=0.025808 units=km normamps=157.0
new line.52874450 phases=3 bus1=80435305270600.1.2.3.0 bus2=80435315270600.1.2.3.0
~ r1=0.991 x1=0.1 length=0.018284 units=km normamps=100.0
new line.52874452 phases=3 bus1=80435555270600.1.2.3.0 bus2=80435475270600.1.2.3.0
~ r1=0.506 x1=0.1 length=0.029937 units=km normamps=157.0
new line.52874455 phases=3 bus1=80435585270600.1.2.3.0 bus2=80435595270600.1.2.3.0
~ r1=0.991 x1=0.1 length=0.030805 units=km normamps=100.0
new line.52874456 phases=3 bus1=80435605270600.1.2.3.0 bus2=80435225270600.1.2.3.0
~ r1=0.991 x1=0.1 length=0.046322 units=km normamps=100.0
new line.52874457 phases=3 bus1=80435615270600.1.2.3.0 bus2=80435575270600.1.2.3.0
~ r1=0.506 x1=0.1 length=0.024901 units=km normamps=157.0
new line.52874459 phases=3 bus1=80435595270600.1.2.3.0 bus2=80435635270600.1.2.3.0
~ r1=0.991 x1=0.1 length=0.029041 units=km normamps=100.0
new line.52874462 phases=3 bus1=80435605270600.1.2.3.0 bus2=80435595270600.1.2.3.0
~ r1=0.991 x1=0.1 length=0.024434 units=km normamps=100.0
new line.52874907 phases=3 bus1=80442545270717.1.2.3.0 bus2=80442535270717.1.2.3.0
~ r1=0.613 x1=0.45 length=0.031039 units=km normamps=203.0
new line.52874912 phases=3 bus1=80442585270718.1.2.3.0 bus2=80442575270718.1.2.3.0
~ r1=0.975 x1=0.47 length=0.011285 units=km normamps=152.0
new line.52874913 phases=3 bus1=80442615270718.1.2.3.0 bus2=80442575270718.1.2.3.0
~ r1=0.613 x1=0.45 length=0.016158 units=km normamps=203.0
new line.52874914 phases=3 bus1=80442625270718.1.2.3.0 bus2=80442615270718.1.2.3.0
~ r1=0.613 x1=0.45 length=0.034977 units=km normamps=203.0
new line.52874916 phases=3 bus1=80442575270718.1.2.3.0 bus2=80442645270718.1.2.3.0
~ r1=0.975 x1=0.47 length=0.030204 units=km normamps=152.0
new line.52874920 phases=3 bus1=80440565270719.1.2.3.0 bus2=80440555270719.1.2.3.0
~ r1=0.613 x1=0.45 length=0.039458 units=km normamps=203.0
new line.52874921 phases=3 bus1=80440575270719.1.2.3.0 bus2=80440565270719.1.2.3.0
~ r1=0.975 x1=0.47 length=0.018772 units=km normamps=152.0
new line.52874925 phases=3 bus1=80440615270719.1.2.3.0 bus2=80440565270719.1.2.3.0
~ r1=0.613 x1=0.45 length=0.042996 units=km normamps=203.0
new line.52874928 phases=3 bus1=80440645270720.1.2.3.0 bus2=80440635270720.1.2.3.0
~ r1=0.975 x1=0.47 length=0.024306 units=km normamps=152.0
new line.52874934 phases=3 bus1=80440695270721.1.2.3.0 bus2=80440715270721.1.2.3.0
~ r1=0.975 x1=0.47 length=0.010651 units=km normamps=152.0
new line.52874936 phases=3 bus1=80440735270721.1.2.3.0 bus2=80440685270721.1.2.3.0
~ r1=0.613 x1=0.45 length=0.019082 units=km normamps=203.0
new line.52874940 phases=3 bus1=80441955270721.1.2.3.0 bus2=80440735270721.1.2.3.0
~ r1=0.613 x1=0.45 length=0.020142 units=km normamps=203.0
new line.52874947 phases=3 bus1=80442975270722.1.2.3.0 bus2=80442965270722.1.2.3.0
~ r1=0.991 x1=0.1 length=0.03516 units=km normamps=100.0
new line.52874948 phases=3 bus1=80442975270722.1.2.3.0 bus2=80442985270722.1.2.3.0
~ r1=1.551 x1=0.49 length=0.028282 units=km normamps=114.0
new line.52874952 phases=3 bus1=80443015270722.1.2.3.0 bus2=80443025270722.1.2.3.0
~ r1=0.613 x1=0.45 length=0.025564 units=km normamps=203.0
new line.52874969 phases=3 bus1=80443125270723.1.2.3.0 bus2=80443185270723.1.2.3.0
~ r1=1.551 x1=0.49 length=0.026739 units=km normamps=114.0
new line.52874970 phases=3 bus1=80443185270723.1.2.3.0 bus2=80442605270723.1.2.3.0
~ r1=0.975 x1=0.47 length=0.008432 units=km normamps=152.0
new line.52874971 phases=3 bus1=80443185270723.1.2.3.0 bus2=80443195270723.1.2.3.0
~ r1=0.613 x1=0.45 length=0.027913 units=km normamps=203.0
new line.52874972 phases=3 bus1=80443195270723.1.2.3.0 bus2=80443205270723.1.2.3.0
~ r1=0.613 x1=0.45 length=0.034403 units=km normamps=203.0
new line.52874974 phases=3 bus1=80443295270723.1.2.3.0 bus2=80443305270723.1.2.3.0
~ r1=1.551 x1=0.49 length=0.038005 units=km normamps=114.0
new line.52874975 phases=3 bus1=80443305270723.1.2.3.0 bus2=80443125270723.1.2.3.0
~ r1=1.551 x1=0.49 length=0.022031 units=km normamps=114.0
new line.52874977 phases=3 bus1=80441165270723.1.2.3.0 bus2=80441155270723.1.2.3.0
~ r1=1.551 x1=0.49 length=0.02994 units=km normamps=114.0
new line.52874978 phases=3 bus1=80441185270723.1.2.3.0 bus2=80441165270723.1.2.3.0
~ r1=1.551 x1=0.49 length=0.038361 units=km normamps=114.0
new line.52874988 phases=3 bus1=80443765270724.1.2.3.0 bus2=80443785270724.1.2.3.0
~ r1=0.613 x1=0.45 length=0.037512 units=km normamps=203.0
new line.52874989 phases=3 bus1=80443795270724.1.2.3.0 bus2=80443785270724.1.2.3.0
~ r1=0.613 x1=0.45 length=0.031047 units=km normamps=203.0
new line.52874997 phases=1 bus1=80443235270725.1.0 bus2=80442695270725.1.0
~ r1=0.975 x1=0.47 length=0.012313 units=km normamps=152.0
new line.52874998 phases=3 bus1=80443245270725.1.2.3.0 bus2=80443255270725.1.2.3.0
~ r1=1.551 x1=0.49 length=0.021066 units=km normamps=114.0
new line.52875002 phases=3 bus1=80443275270725.1.2.3.0 bus2=80443285270725.1.2.3.0
~ r1=0.975 x1=0.47 length=0.03024 units=km normamps=152.0
new line.52875008 phases=3 bus1=80443545270725.1.2.3.0 bus2=80443555270725.1.2.3.0
~ r1=1.551 x1=0.49 length=0.040855 units=km normamps=114.0
new line.52875010 phases=1 bus1=80442695270725.1.0 bus2=80443575270725.1.0
~ r1=0.975 x1=0.47 length=0.033516 units=km normamps=152.0
new line.52875011 phases=3 bus1=80443345270726.1.2.3.0 bus2=80443335270726.1.2.3.0
~ r1=0.613 x1=0.45 length=0.024493 units=km normamps=203.0
new line.52875017 phases=3 bus1=80443375270727.1.2.3.0 bus2=80443425270727.1.2.3.0
~ r1=0.613 x1=0.45 length=0.031367 units=km normamps=203.0
new line.52875018 phases=3 bus1=80443425270727.1.2.3.0 bus2=80443435270727.1.2.3.0
~ r1=0.613 x1=0.45 length=0.030506 units=km normamps=203.0
new line.52875021 phases=3 bus1=80443455270727.1.2.3.0 bus2=80443775270727.1.2.3.0
~ r1=0.613 x1=0.45 length=0.032192 units=km normamps=203.0
new line.52875023 phases=3 bus1=80443475270728.1.2.3.0 bus2=80443485270728.1.2.3.0
~ r1=0.613 x1=0.45 length=0.026987 units=km normamps=203.0
new line.52875024 phases=3 bus1=80443485270728.1.2.3.0 bus2=80443495270728.1.2.3.0
~ r1=0.613 x1=0.45 length=0.025645 units=km normamps=203.0
new line.52875026 phases=3 bus1=80443515270728.1.2.3.0 bus2=80443415270728.1.2.3.0
~ r1=1.551 x1=0.49 length=0.026212 units=km normamps=114.0
new line.52875032 phases=3 bus1=80442865270729.1.2.3.0 bus2=80444285270729.1.2.3.0
~ r1=0.975 x1=0.47 length=0.018205 units=km normamps=152.0
new line.52875035 phases=3 bus1=80442895270729.1.2.3.0 bus2=80442885270729.1.2.3.0
~ r1=0.975 x1=0.47 length=0.015 units=km normamps=152.0
new line.52875036 phases=3 bus1=80442725270729.1.2.3.0 bus2=80442735270729.1.2.3.0
~ r1=0.975 x1=0.47 length=0.021667 units=km normamps=152.0
new line.52875040 phases=3 bus1=80442765270729.1.2.3.0 bus2=80442775270729.1.2.3.0
~ r1=0.975 x1=0.47 length=0.035663 units=km normamps=152.0
new line.52875041 phases=3 bus1=80442775270729.1.2.3.0 bus2=80442785270729.1.2.3.0
~ r1=0.975 x1=0.47 length=0.04122 units=km normamps=152.0
new line.52875042 phases=3 bus1=80442785270729.1.2.3.0 bus2=80442795270729.1.2.3.0
~ r1=0.975 x1=0.47 length=0.049008 units=km normamps=152.0
new line.52875043 phases=3 bus1=80442795270729.1.2.3.0 bus2=80442805270729.1.2.3.0
~ r1=0.975 x1=0.47 length=0.025625 units=km normamps=152.0
new line.52875047 phases=3 bus1=80442835270729.1.2.3.0 bus2=80442845270729.1.2.3.0
~ r1=0.975 x1=0.47 length=0.015098 units=km normamps=152.0
new line.52875048 phases=3 bus1=80442855270729.1.2.3.0 bus2=80442865270729.1.2.3.0
~ r1=0.975 x1=0.47 length=0.037171 units=km normamps=152.0
new line.52875052 phases=3 bus1=80444195270729.1.2.3.0 bus2=80444185270729.1.2.3.0
~ r1=0.975 x1=0.47 length=0.047095 units=km normamps=152.0
new line.52875054 phases=3 bus1=80444215270729.1.2.3.0 bus2=80444205270729.1.2.3.0
~ r1=0.975 x1=0.47 length=0.036138 units=km normamps=152.0
new line.52875063 phases=3 bus1=80443625270729.1.2.3.0 bus2=80443605270729.1.2.3.0
~ r1=1.551 x1=0.49 length=0.032083 units=km normamps=114.0
new line.52875065 phases=3 bus1=80443645270729.1.2.3.0 bus2=80443635270729.1.2.3.0
~ r1=1.551 x1=0.49 length=0.048493 units=km normamps=114.0
new line.52875066 phases=3 bus1=80443655270729.1.2.3.0 bus2=80443645270729.1.2.3.0
~ r1=1.551 x1=0.49 length=0.031583 units=km normamps=114.0
new line.52875067 phases=3 bus1=80443665270729.1.2.3.0 bus2=80443655270729.1.2.3.0
~ r1=1.551 x1=0.49 length=0.030685 units=km normamps=114.0
new line.52875073 phases=3 bus1=80443835270729.1.2.3.0 bus2=80443825270729.1.2.3.0
~ r1=0.975 x1=0.47 length=0.034736 units=km normamps=152.0
new line.52875075 phases=3 bus1=80443855270729.1.2.3.0 bus2=80443845270729.1.2.3.0
~ r1=0.975 x1=0.47 length=0.028574 units=km normamps=152.0
new line.52875080 phases=3 bus1=80443595270729.1.2.3.0 bus2=80443895270729.1.2.3.0
~ r1=0.975 x1=0.47 length=0.052785 units=km normamps=152.0
new line.52875083 phases=3 bus1=80442865270729.1.2.3.0 bus2=80442725270729.1.2.3.0
~ r1=0.975 x1=0.47 length=0.061904 units=km normamps=152.0
new line.52875085 phases=3 bus1=80441485270731.1.2.3.0 bus2=80441495270731.1.2.3.0
~ r1=0.975 x1=0.47 length=0.02482 units=km normamps=152.0
new line.52875087 phases=3 bus1=80441515270731.1.2.3.0 bus2=80441505270731.1.2.3.0
~ r1=0.613 x1=0.45 length=0.011752 units=km normamps=203.0
new line.52875088 phases=3 bus1=80441695270731.1.2.3.0 bus2=80441505270731.1.2.3.0
~ r1=0.975 x1=0.47 length=0.018183 units=km normamps=152.0
new line.52875091 phases=3 bus1=80441705270731.1.2.3.0 bus2=80441525270731.1.2.3.0
~ r1=0.975 x1=0.47 length=0.021745 units=km normamps=152.0
new line.52875093 phases=3 bus1=80441735270731.1.2.3.0 bus2=80441725270731.1.2.3.0
~ r1=0.613 x1=0.45 length=0.036239 units=km normamps=203.0
new line.52875094 phases=3 bus1=80441745270731.1.2.3.0 bus2=80441735270731.1.2.3.0
~ r1=0.613 x1=0.45 length=0.040442 units=km normamps=203.0
new line.52875096 phases=3 bus1=80441765270731.1.2.3.0 bus2=80441755270731.1.2.3.0
~ r1=0.613 x1=0.45 length=0.025297 units=km normamps=203.0
new line.52875102 phases=3 bus1=80441815270731.1.2.3.0 bus2=80441825270731.1.2.3.0
~ r1=0.975 x1=0.47 length=0.036268 units=km normamps=152.0
new line.52875103 phases=3 bus1=80441825270731.1.2.3.0 bus2=80441835270731.1.2.3.0
~ r1=0.975 x1=0.47 length=0.041633 units=km normamps=152.0
new line.52875104 phases=3 bus1=80441835270731.1.2.3.0 bus2=80441845270731.1.2.3.0
~ r1=0.975 x1=0.47 length=0.03083 units=km normamps=152.0
new line.52875105 phases=3 bus1=80441845270731.1.2.3.0 bus2=80441855270731.1.2.3.0
~ r1=0.975 x1=0.47 length=0.031491 units=km normamps=152.0
new line.52875110 phases=1 bus1=80440775270734.1.0 bus2=80440765270734.1.0
~ r1=0.975 x1=0.47 length=0.014889 units=km normamps=152.0
new line.52875119 phases=3 bus1=80440855270734.1.2.0 bus2=80440865270734.1.2.0
~ r1=1.551 x1=0.49 length=0.045484 units=km normamps=114.0
new line.52875122 phases=3 bus1=80440895270734.1.2.3.0 bus2=80440885270734.1.2.3.0
~ r1=0.975 x1=0.47 length=0.018113 units=km normamps=152.0
new line.52875133 phases=3 bus1=80441075270734.1.2.3.0 bus2=80441065270734.1.2.3.0
~ r1=1.551 x1=0.49 length=0.021007 units=km normamps=114.0
new line.52875134 phases=3 bus1=80441085270734.1.2.3.0 bus2=80441075270734.1.2.3.0
~ r1=1.551 x1=0.49 length=0.029898 units=km normamps=114.0
new line.52875137 phases=3 bus1=80441095270734.1.2.3.0 bus2=80441105270734.1.2.3.0
~ r1=1.551 x1=0.49 length=0.044862 units=km normamps=114.0
new line.52875140 phases=3 bus1=80441125270734.1.2.3.0 bus2=80441135270734.1.2.3.0
~ r1=1.551 x1=0.49 length=0.027816 units=km normamps=114.0
new line.52875141 phases=3 bus1=80441195270734.1.2.3.0 bus2=80441205270734.1.2.3.0
~ r1=0.613 x1=0.45 length=0.030659 units=km normamps=203.0
new line.52875143 phases=3 bus1=80441245270734.1.2.3.0 bus2=80441195270734.1.2.3.0
~ r1=0.613 x1=0.45 length=0.048499 units=km normamps=203.0
new line.52875145 phases=3 bus1=80441275270734.1.2.3.0 bus2=80441265270734.1.2.3.0
~ r1=0.613 x1=0.45 length=0.033008 units=km normamps=203.0
new line.52875152 phases=3 bus1=80441315270734.1.2.3.0 bus2=80441325270734.1.2.3.0
~ r1=1.551 x1=0.49 length=0.028826 units=km normamps=114.0
new line.52875153 phases=3 bus1=80441335270734.1.2.3.0 bus2=80441325270734.1.2.3.0
~ r1=1.551 x1=0.49 length=0.023937 units=km normamps=114.0
new line.52875163 phases=3 bus1=80441535270735.1.2.3.0 bus2=80441405270735.1.2.3.0
~ r1=0.975 x1=0.47 length=0.015332 units=km normamps=152.0
new line.52875165 phases=3 bus1=80441545270735.1.2.3.0 bus2=80441555270735.1.2.3.0
~ r1=0.975 x1=0.47 length=0.020468 units=km normamps=152.0
new line.52875167 phases=3 bus1=80441575270735.1.2.3.0 bus2=80441565270735.1.2.3.0
~ r1=0.613 x1=0.45 length=0.036531 units=km normamps=203.0
new line.52875168 phases=3 bus1=80441585270735.1.2.3.0 bus2=80441575270735.1.2.3.0
~ r1=0.613 x1=0.45 length=0.050851 units=km normamps=203.0
new line.52875171 phases=3 bus1=80441615270735.1.2.3.0 bus2=80441605270735.1.2.3.0
~ r1=0.975 x1=0.47 length=0.034977 units=km normamps=152.0
new line.52875174 phases=3 bus1=80441605270735.1.2.3.0 bus2=80441805270735.1.2.3.0
~ r1=0.975 x1=0.47 length=0.033163 units=km normamps=152.0
new line.52875175 phases=3 bus1=80442085270736.1.2.3.0 bus2=80442065270736.1.2.3.0
~ r1=0.975 x1=0.47 length=0.02009 units=km normamps=152.0
new line.52875178 phases=3 bus1=80442145270736.1.2.3.0 bus2=80442095270736.1.2.3.0
~ r1=0.975 x1=0.47 length=0.011432 units=km normamps=152.0
new line.52875183 phases=3 bus1=80442105270736.1.2.3.0 bus2=80442115270736.1.2.3.0
~ r1=0.975 x1=0.47 length=0.02488 units=km normamps=152.0
new line.52875184 phases=3 bus1=80442165270736.1.2.3.0 bus2=80442105270736.1.2.3.0
~ r1=0.613 x1=0.45 length=0.006859 units=km normamps=203.0
new line.52875186 phases=3 bus1=80442065270736.1.2.3.0 bus2=80442175270736.1.2.3.0
~ r1=0.975 x1=0.47 length=0.015338 units=km normamps=152.0
new line.52875192 phases=3 bus1=80442415270737.1.2.3.0 bus2=80442405270737.1.2.3.0
~ r1=0.506 x1=0.1 length=0.038957 units=km normamps=157.0
new line.52875197 phases=3 bus1=80442465270737.1.2.3.0 bus2=80442455270737.1.2.3.0
~ r1=0.991 x1=0.1 length=0.018284 units=km normamps=100.0
new line.52875199 phases=3 bus1=80442475270737.1.2.3.0 bus2=80442485270737.1.2.3.0
~ r1=0.991 x1=0.1 length=0.031962 units=km normamps=100.0
new line.52875201 phases=3 bus1=80441905270738.1.2.3.0 bus2=80441915270738.1.2.3.0
~ r1=0.975 x1=0.47 length=0.023063 units=km normamps=152.0
new line.52875203 phases=3 bus1=80441895270738.1.2.3.0 bus2=80441875270738.1.2.3.0
~ r1=0.975 x1=0.47 length=0.027015 units=km normamps=152.0
new line.52875204 phases=3 bus1=80441875270738.1.2.3.0 bus2=80441885270738.1.2.3.0
~ r1=0.975 x1=0.47 length=0.021946 units=km normamps=152.0
new line.52875206 phases=3 bus1=80441885270738.1.2.3.0 bus2=80441965270738.1.2.3.0
~ r1=0.975 x1=0.47 length=0.022979 units=km normamps=152.0
new line.52875210 phases=3 bus1=80441985270739.1.2.3.0 bus2=80441975270739.1.2.3.0
~ r1=0.613 x1=0.45 length=0.030775 units=km normamps=203.0
new line.52875212 phases=3 bus1=80442005270739.1.2.3.0 bus2=80441995270739.1.2.3.0
~ r1=0.613 x1=0.45 length=0.037067 units=km normamps=203.0
new line.52875217 phases=3 bus1=80442345558041.1.2.3.0 bus2=80442355558041.1.2.3.0
~ r1=0.506 x1=0.1 length=0.036557 units=km normamps=157.0
new line.52875221 phases=3 bus1=80442205270740.1.2.3.0 bus2=80442195270740.1.2.3.0
~ r1=0.613 x1=0.45 length=0.013908 units=km normamps=203.0
new line.52875222 phases=3 bus1=80442215270740.1.2.3.0 bus2=80442205270740.1.2.3.0
~ r1=0.613 x1=0.45 length=0.013908 units=km normamps=203.0
new line.52875224 phases=3 bus1=80442225270740.1.2.3.0 bus2=80442245270740.1.2.3.0
~ r1=0.613 x1=0.45 length=0.031583 units=km normamps=203.0
new line.52875228 phases=3 bus1=80442265270740.1.2.3.0 bus2=80442275270740.1.2.3.0
~ r1=0.613 x1=0.45 length=0.028356 units=km normamps=203.0
new line.52875230 phases=3 bus1=80442285270740.1.2.3.0 bus2=80442315270740.1.2.3.0
~ r1=0.613 x1=0.45 length=0.035259 units=km normamps=203.0
new line.52875235 phases=3 bus1=80446165270744.1.2.3.0 bus2=80446205270744.1.2.3.0
~ r1=0.506 x1=0.1 length=0.040928 units=km normamps=157.0
new line.52875246 phases=3 bus1=80445785270746.1.2.3.0 bus2=80445815270746.1.2.3.0
~ r1=0.506 x1=0.1 length=0.032497 units=km normamps=157.0
new line.52875247 phases=3 bus1=80445815270746.1.2.3.0 bus2=80445845270746.1.2.3.0
~ r1=0.506 x1=0.1 length=0.030506 units=km normamps=157.0
new line.52875249 phases=3 bus1=80445865270746.1.2.3.0 bus2=80445885270746.1.2.3.0
~ r1=0.506 x1=0.1 length=0.008244 units=km normamps=157.0
new line.52875252 phases=3 bus1=80445875270746.1.2.3.0 bus2=80445905270746.1.2.3.0
~ r1=0.506 x1=0.1 length=0.021 units=km normamps=157.0
new line.52875253 phases=3 bus1=80445895270746.1.2.3.0 bus2=80445925270746.1.2.3.0
~ r1=0.506 x1=0.1 length=0.018855 units=km normamps=157.0
new line.52875264 phases=3 bus1=80446015270747.1.2.3.0 bus2=80446025270747.1.2.3.0
~ r1=0.991 x1=0.1 length=0.034154 units=km normamps=100.0
new line.52875268 phases=3 bus1=80446115270747.1.2.3.0 bus2=80446105270747.1.2.3.0
~ r1=0.506 x1=0.1 length=0.017858 units=km normamps=157.0
new line.52875269 phases=3 bus1=80446145270747.1.2.3.0 bus2=80446115270747.1.2.3.0
~ r1=0.506 x1=0.1 length=0.014641 units=km normamps=157.0
new line.52875270 phases=3 bus1=80446145270747.1.2.3.0 bus2=94777605270747.1.2.3.0
~ r1=0.506 x1=0.1 length=0.01252 units=km normamps=157.0
new line.52875282 phases=3 bus1=80447365270688.1.2.3.0 bus2=80447765270688.1.2.3.0
~ r1=0.506 x1=0.1 length=0.016518 units=km normamps=157.0
new line.52875285 phases=3 bus1=80446765270688.1.2.3.0 bus2=80446745270688.1.2.3.0
~ r1=0.991 x1=0.1 length=0.012648 units=km normamps=100.0
new line.52875286 phases=3 bus1=80446775270688.1.2.3.0 bus2=80446765270688.1.2.3.0
~ r1=0.991 x1=0.1 length=0.017141 units=km normamps=100.0
new line.52875289 phases=3 bus1=80447345270688.1.2.3.0 bus2=80447335270688.1.2.3.0
~ r1=0.506 x1=0.1 length=0.02108 units=km normamps=157.0
new line.52875290 phases=3 bus1=80447385270688.1.2.3.0 bus2=80447365270688.1.2.3.0
~ r1=0.506 x1=0.1 length=0.01243 units=km normamps=157.0
new line.52875291 phases=3 bus1=80447405270688.1.2.3.0 bus2=80447385270688.1.2.3.0
~ r1=0.975 x1=0.47 length=0.007444 units=km normamps=152.0
new line.52875292 phases=3 bus1=80447415270688.1.2.3.0 bus2=80447405270688.1.2.3.0
~ r1=0.506 x1=0.1 length=0.007003 units=km normamps=157.0
new line.52875293 phases=3 bus1=80447425270688.1.2.3.0 bus2=80447345270688.1.2.3.0
~ r1=1.551 x1=0.49 length=0.027923 units=km normamps=114.0
new line.52875294 phases=3 bus1=80446325270752.1.2.3.0 bus2=80446445270752.1.2.3.0
~ r1=0.506 x1=0.1 length=0.031909 units=km normamps=157.0
new line.52875301 phases=3 bus1=80446355270752.1.2.3.0 bus2=80446385270752.1.2.3.0
~ r1=0.506 x1=0.1 length=0.021824 units=km normamps=157.0
new line.52875303 phases=3 bus1=80446405270752.1.2.3.0 bus2=80446395270752.1.2.3.0
~ r1=0.506 x1=0.1 length=0.029777 units=km normamps=157.0
new line.52875306 phases=3 bus1=80446195270753.1.2.3.0 bus2=80446485270753.1.2.3.0
~ r1=0.506 x1=0.1 length=0.027979 units=km normamps=157.0
new line.52875318 phases=3 bus1=80445475270754.1.2.3.0 bus2=80445485270754.1.2.3.0
~ r1=0.975 x1=0.47 length=0.041816 units=km normamps=152.0
new line.52875319 phases=3 bus1=80445485270754.1.2.3.0 bus2=80446155270754.1.2.3.0
~ r1=0.975 x1=0.47 length=0.016638 units=km normamps=152.0
new line.52875323 phases=3 bus1=80446505270754.1.2.3.0 bus2=80444315270754.1.2.3.0
~ r1=0.613 x1=0.45 length=0.029513 units=km normamps=203.0
new line.52875327 phases=3 bus1=80444315270754.1.2.3.0 bus2=80444325270754.1.2.3.0
~ r1=0.613 x1=0.45 length=0.018206 units=km normamps=203.0
new line.52875330 phases=3 bus1=80446625270757.1.2.3.0 bus2=80446645270757.1.2.3.0
~ r1=0.506 x1=0.1 length=0.018659 units=km normamps=157.0
new line.52875337 phases=3 bus1=80446975270758.1.2.3.0 bus2=80446285270758.1.2.3.0
~ r1=0.506 x1=0.1 length=0.028297 units=km normamps=157.0
new line.52875342 phases=3 bus1=80444625270759.1.2.3.0 bus2=80446985270759.1.2.3.0
~ r1=0.506 x1=0.1 length=0.033008 units=km normamps=157.0
new line.52875350 phases=3 bus1=80446795270760.1.2.3.0 bus2=80446805270760.1.2.3.0
~ r1=0.506 x1=0.1 length=0.019854 units=km normamps=157.0
new line.52875354 phases=3 bus1=80446835270760.1.2.3.0 bus2=80447065270760.1.2.3.0
~ r1=0.506 x1=0.1 length=0.025801 units=km normamps=157.0
new line.52875361 phases=3 bus1=80445575270762.1.2.3.0 bus2=80445585270762.1.2.3.0
~ r1=0.613 x1=0.45 length=0.038857 units=km normamps=203.0
new line.52875367 phases=3 bus1=80445545270763.1.2.3.0 bus2=80445275270763.1.2.3.0
~ r1=0.991 x1=0.1 length=0.034599 units=km normamps=100.0
new line.52875368 phases=3 bus1=80445555270763.1.2.3.0 bus2=80445545270763.1.2.3.0
~ r1=0.506 x1=0.1 length=0.030759 units=km normamps=157.0
new line.52875369 phases=3 bus1=80445615270763.1.2.3.0 bus2=80445625270763.1.2.3.0
~ r1=0.506 x1=0.1 length=0.029774 units=km normamps=157.0
new line.52875372 phases=3 bus1=80445645270763.1.2.3.0 bus2=93946095270763.1.2.3.0
~ r1=0.991 x1=0.1 length=0.007272 units=km normamps=100.0
new line.52875373 phases=3 bus1=80445655270763.1.2.3.0 bus2=91097155270763.1.2.3.0
~ r1=0.991 x1=0.1 length=0.017189 units=km normamps=100.0
new line.52875374 phases=3 bus1=80443935270763.1.2.3.0 bus2=80445655270763.1.2.3.0
~ r1=0.991 x1=0.1 length=0.023316 units=km normamps=100.0
new line.52875377 phases=3 bus1=80444845270765.1.2.3.0 bus2=80444835270765.1.2.3.0
~ r1=0.975 x1=0.47 length=0.039352 units=km normamps=152.0
new line.52875379 phases=3 bus1=80444865270765.1.2.3.0 bus2=80444855270765.1.2.3.0
~ r1=0.975 x1=0.47 length=0.011659 units=km normamps=152.0
new line.52875383 phases=3 bus1=80444905270765.1.2.3.0 bus2=80444885270765.1.2.3.0
~ r1=0.506 x1=0.1 length=0.037052 units=km normamps=157.0
new line.52875384 phases=3 bus1=80444915270765.1.2.3.0 bus2=80444905270765.1.2.3.0
~ r1=0.506 x1=0.1 length=0.033526 units=km normamps=157.0
new line.52875389 phases=3 bus1=80444985270765.1.2.3.0 bus2=80444995270765.1.2.3.0
~ r1=0.975 x1=0.47 length=0.028475 units=km normamps=152.0
new line.52875393 phases=3 bus1=80446575270690.1.2.3.0 bus2=80446565270690.1.2.3.0
~ r1=0.506 x1=0.1 length=0.046412 units=km normamps=157.0
new line.52875396 phases=3 bus1=80446595434898.1.2.3.0 bus2=80446585434898.1.2.3.0
~ r1=0.506 x1=0.1 length=0.027135 units=km normamps=157.0
new line.52875398 phases=3 bus1=80444535270691.1.2.3.0 bus2=80444525270691.1.2.3.0
~ r1=0.506 x1=0.1 length=0.029668 units=km normamps=157.0
new line.52875405 phases=3 bus1=80447665270691.1.2.3.0 bus2=80447655270691.1.2.3.0
~ r1=1.551 x1=0.49 length=0.02009 units=km normamps=114.0
new line.52875406 phases=3 bus1=80444555270692.1.2.3.0 bus2=80444565270692.1.2.3.0
~ r1=0.506 x1=0.1 length=0.025215 units=km normamps=157.0
new line.52875409 phases=3 bus1=80444585270692.1.2.3.0 bus2=80445995270692.1.2.3.0
~ r1=0.506 x1=0.1 length=0.04614 units=km normamps=157.0
new line.52875412 phases=3 bus1=80444675270693.1.2.3.0 bus2=80444685270693.1.2.3.0
~ r1=0.506 x1=0.1 length=0.021101 units=km normamps=157.0
new line.52875415 phases=3 bus1=80445035270765.1.2.3.0 bus2=80445045270765.1.2.3.0
~ r1=0.975 x1=0.47 length=0.034601 units=km normamps=152.0
new line.52875416 phases=3 bus1=80444865270765.1.2.3.0 bus2=80445035270765.1.2.3.0
~ r1=0.975 x1=0.47 length=0.027813 units=km normamps=152.0
new line.52875417 phases=3 bus1=80445045270765.1.2.3.0 bus2=80445055270765.1.2.3.0
~ r1=0.975 x1=0.47 length=0.038482 units=km normamps=152.0
new line.52875420 phases=3 bus1=80445075270765.1.2.3.0 bus2=80445085270765.1.2.3.0
~ r1=0.975 x1=0.47 length=0.032919 units=km normamps=152.0
new line.52875425 phases=1 bus1=80445145270765.1.0 bus2=80445135270765.1.0
~ r1=2.389 x1=0.52 length=0.017591 units=km normamps=90.0
new line.52875426 phases=1 bus1=80445135270765.1.0 bus2=80444955270765.1.0
~ r1=2.389 x1=0.52 length=0.019854 units=km normamps=90.0
new line.52875428 phases=1 bus1=80445135270765.1.0 bus2=80445125270765.1.0
~ r1=2.389 x1=0.52 length=0.030694 units=km normamps=90.0
new line.52875432 phases=3 bus1=80443985270924.1.2.3.0 bus2=80443995270924.1.2.3.0
~ r1=0.991 x1=0.1 length=0.038581 units=km normamps=100.0
new line.52875433 phases=3 bus1=80443995270924.1.2.3.0 bus2=80444005270924.1.2.3.0
~ r1=0.991 x1=0.1 length=0.033627 units=km normamps=100.0
new line.52875436 phases=3 bus1=80444025270924.1.2.3.0 bus2=80444045270924.1.2.3.0
~ r1=0.991 x1=0.1 length=0.028282 units=km normamps=100.0
new line.52875437 phases=3 bus1=80444035270924.1.2.3.0 bus2=80444055270924.1.2.3.0
~ r1=0.991 x1=0.1 length=0.010224 units=km normamps=100.0
new line.52875440 phases=3 bus1=80444055270924.1.2.3.0 bus2=80444085270924.1.2.3.0
~ r1=0.991 x1=0.1 length=0.016863 units=km normamps=100.0
new line.52875442 phases=3 bus1=80444095270766.1.2.3.0 bus2=80444105270766.1.2.3.0
~ r1=0.991 x1=0.1 length=0.022448 units=km normamps=100.0
new line.52875444 phases=3 bus1=80444715270766.1.2.3.0 bus2=80444725270766.1.2.3.0
~ r1=0.991 x1=0.1 length=0.030092 units=km normamps=100.0
new line.52875445 phases=3 bus1=80444735270766.1.2.3.0 bus2=80444715270766.1.2.3.0
~ r1=0.975 x1=0.47 length=0.021692 units=km normamps=152.0
new line.52875447 phases=3 bus1=80444755270766.1.2.3.0 bus2=80444745270766.1.2.3.0
~ r1=0.975 x1=0.47 length=0.014602 units=km normamps=152.0
new line.52875448 phases=3 bus1=80444765270766.1.2.3.0 bus2=80444755270766.1.2.3.0
~ r1=0.975 x1=0.47 length=0.026136 units=km normamps=152.0
new line.52875449 phases=3 bus1=80444015270924.1.2.3.0 bus2=80444775270924.1.2.3.0
~ r1=0.991 x1=0.1 length=0.053977 units=km normamps=100.0
new line.52875450 phases=3 bus1=80444025270924.1.2.3.0 bus2=80444015270924.1.2.3.0
~ r1=0.991 x1=0.1 length=0.012351 units=km normamps=100.0
new line.52875452 phases=3 bus1=80444785270766.1.2.3.0 bus2=80444765270766.1.2.3.0
~ r1=0.975 x1=0.47 length=0.026381 units=km normamps=152.0
new line.52875453 phases=3 bus1=80443965270766.1.2.0 bus2=80444795270766.1.2.0
~ r1=1.551 x1=0.49 length=0.012474 units=km normamps=114.0
new line.52875454 phases=3 bus1=80444795270766.1.2.0 bus2=80444805270766.1.2.0
~ r1=1.551 x1=0.49 length=0.031291 units=km normamps=114.0
new line.52875458 phases=3 bus1=80444145270924.1.2.3.0 bus2=80444155270924.1.2.3.0
~ r1=0.991 x1=0.1 length=0.008696 units=km normamps=100.0
new line.52875460 phases=3 bus1=80444165270924.1.2.3.0 bus2=80444695270924.1.2.3.0
~ r1=0.991 x1=0.1 length=0.010276 units=km normamps=100.0
new line.52875464 phases=3 bus1=80444125270766.1.2.3.0 bus2=80444115270766.1.2.3.0
~ r1=0.991 x1=0.1 length=0.036441 units=km normamps=100.0
new line.52875468 phases=3 bus1=80445285270679.1.2.3.0 bus2=80445295270679.1.2.3.0
~ r1=0.506 x1=0.1 length=0.0136 units=km normamps=157.0
new line.52875469 phases=3 bus1=80445295270679.1.2.3.0 bus2=80445305270679.1.2.3.0
~ r1=0.506 x1=0.1 length=0.015512 units=km normamps=157.0
new line.52875470 phases=3 bus1=80445315270679.1.2.3.0 bus2=80445305270679.1.2.3.0
~ r1=0.613 x1=0.45 length=0.010823 units=km normamps=203.0
new line.52875473 phases=3 bus1=80445355270679.1.2.3.0 bus2=80445365270679.1.2.3.0
~ r1=0.506 x1=0.1 length=0.026785 units=km normamps=157.0
new line.52875475 phases=3 bus1=80445385270679.1.2.3.0 bus2=94979095270679.1.2.3.0
~ r1=0.506 x1=0.1 length=0.004922 units=km normamps=157.0
new line.52875480 phases=3 bus1=80446995270682.1.2.3.0 bus2=80444635270682.1.2.3.0
~ r1=0.506 x1=0.1 length=0.035906 units=km normamps=157.0
new line.52875481 phases=3 bus1=80447005270682.1.2.3.0 bus2=80446995270682.1.2.3.0
~ r1=0.506 x1=0.1 length=0.009701 units=km normamps=157.0
new line.52875482 phases=3 bus1=80447015270682.1.2.3.0 bus2=80447005270682.1.2.3.0
~ r1=0.991 x1=0.1 length=0.016168 units=km normamps=100.0
new line.52875486 phases=3 bus1=80447035270682.1.2.3.0 bus2=80447055270682.1.2.3.0
~ r1=0.991 x1=0.1 length=0.02994 units=km normamps=100.0
new line.52875490 phases=3 bus1=80446715270683.1.2.3.0 bus2=80446695270683.1.2.3.0
~ r1=0.506 x1=0.1 length=0.017165 units=km normamps=157.0
new line.52875493 phases=3 bus1=80447105270683.1.2.3.0 bus2=80447095270683.1.2.3.0
~ r1=0.506 x1=0.1 length=0.014617 units=km normamps=157.0
new line.52875494 phases=3 bus1=80447115270683.1.2.3.0 bus2=80447105270683.1.2.3.0
~ r1=0.506 x1=0.1 length=0.02237 units=km normamps=157.0
new line.52875495 phases=3 bus1=80447125270683.1.2.3.0 bus2=80447115270683.1.2.3.0
~ r1=0.506 x1=0.1 length=0.021656 units=km normamps=157.0
new line.52875496 phases=3 bus1=80447235270686.1.2.3.0 bus2=95428525270686.1.2.3.0
~ r1=0.991 x1=0.1 length=0.005471 units=km normamps=100.0
new line.52875498 phases=3 bus1=80447275270686.1.2.3.0 bus2=80447255270686.1.2.3.0
~ r1=0.975 x1=0.47 length=0.011963 units=km normamps=152.0
new line.52875499 phases=3 bus1=80447285270686.1.2.3.0 bus2=80447275270686.1.2.3.0
~ r1=0.975 x1=0.47 length=0.016312 units=km normamps=152.0
new line.52875501 phases=3 bus1=80447305270686.1.2.3.0 bus2=80447295270686.1.2.3.0
~ r1=0.975 x1=0.47 length=0.014413 units=km normamps=152.0
new line.52875507 phases=3 bus1=80442055270690.1.2.3.0 bus2=80442045270690.1.2.3.0
~ r1=0.991 x1=0.1 length=0.01591 units=km normamps=100.0
new line.52875508 phases=3 bus1=80442025270690.1.2.3.0 bus2=80446535270690.1.2.3.0
~ r1=0.506 x1=0.1 length=0.013908 units=km normamps=157.0
new line.52875509 phases=3 bus1=80446535270690.1.2.3.0 bus2=80446545270690.1.2.3.0
~ r1=0.506 x1=0.1 length=0.020374 units=km normamps=157.0
new line.52876271 phases=3 bus1=80449095270865.1.2.3.0 bus2=80449105270865.1.2.3.0
~ r1=0.613 x1=0.45 length=0.024834 units=km normamps=203.0
new line.52876272 phases=3 bus1=80449195270865.1.2.3.0 bus2=79658335270865.1.2.3.0
~ r1=0.975 x1=0.47 length=0.028943 units=km normamps=152.0
new line.52876273 phases=3 bus1=80449205270865.1.2.3.0 bus2=80449195270865.1.2.3.0
~ r1=0.975 x1=0.47 length=0.036655 units=km normamps=152.0
new line.52876274 phases=3 bus1=80449215270865.1.2.3.0 bus2=80449205270865.1.2.3.0
~ r1=0.975 x1=0.47 length=0.029715 units=km normamps=152.0
new line.52876275 phases=3 bus1=80449225270865.1.2.3.0 bus2=80449215270865.1.2.3.0
~ r1=0.975 x1=0.47 length=0.025625 units=km normamps=152.0
new line.52876277 phases=3 bus1=79658365270865.1.2.3.0 bus2=80449235270865.1.2.3.0
~ r1=0.991 x1=0.1 length=0.03537 units=km normamps=100.0
new line.52876279 phases=3 bus1=80449245270865.1.2.3.0 bus2=80449255270865.1.2.3.0
~ r1=0.991 x1=0.1 length=0.027901 units=km normamps=100.0
new line.52876280 phases=3 bus1=80449105270865.1.2.3.0 bus2=80449275270865.1.2.3.0
~ r1=0.613 x1=0.45 length=0.030214 units=km normamps=203.0
new line.52876281 phases=3 bus1=80449275270865.1.2.3.0 bus2=80449265270865.1.2.3.0
~ r1=0.613 x1=0.45 length=0.044421 units=km normamps=203.0
new line.52876282 phases=3 bus1=80449255270865.1.2.3.0 bus2=80449285270865.1.2.3.0
~ r1=0.991 x1=0.1 length=0.014314 units=km normamps=100.0
new line.52876283 phases=3 bus1=80449265270865.1.2.3.0 bus2=80449285270865.1.2.3.0
~ r1=0.975 x1=0.47 length=0.045414 units=km normamps=152.0
new line.52876284 phases=3 bus1=80449655270866.1.2.3.0 bus2=80449665270866.1.2.3.0
~ r1=1.551 x1=0.49 length=0.032797 units=km normamps=114.0
new line.52876285 phases=3 bus1=80449425270866.1.2.3.0 bus2=80449675270866.1.2.3.0
~ r1=0.613 x1=0.45 length=0.011969 units=km normamps=203.0
new line.52876287 phases=3 bus1=80449675270866.1.2.3.0 bus2=79659045270866.1.2.3.0
~ r1=0.613 x1=0.45 length=0.027609 units=km normamps=203.0
new line.52876288 phases=3 bus1=80448895270866.1.2.3.0 bus2=80448905270866.1.2.3.0
~ r1=0.613 x1=0.45 length=0.044903 units=km normamps=203.0
new line.52876289 phases=3 bus1=80448915270866.1.2.3.0 bus2=80448895270866.1.2.3.0
~ r1=0.975 x1=0.47 length=0.042029 units=km normamps=152.0
new line.52876290 phases=3 bus1=80448925270866.1.2.3.0 bus2=80448915270866.1.2.3.0
~ r1=0.975 x1=0.47 length=0.041271 units=km normamps=152.0
new line.52876291 phases=3 bus1=80448945270866.1.2.3.0 bus2=80448925270866.1.2.3.0
~ r1=0.975 x1=0.47 length=0.029724 units=km normamps=152.0
new line.52876292 phases=3 bus1=80448935270866.1.2.3.0 bus2=80448945270866.1.2.3.0
~ r1=0.975 x1=0.47 length=0.033292 units=km normamps=152.0
...